testing/cases/case_5BUS.dat
01/01/26  EE574 GEN            100.0  2026W  5BUS
BUS DATA FOLLOWS                            5 ITEMS
   1 Slack               3 1.060   0.00     0.00     0.00   170.90    1.51                                  0.0000  0.0000     0
   2 Gen2                2 1.045  -3.00     0.00     0.00   -30.36   48.08                                  0.0000  0.0000     0
   3 Load3               0 1.020  -6.00    30.01     6.95     0.00    0.00                                  0.0000  0.0000     0
   4 Load4               0 1.010  -7.50   129.33    46.68     0.00    0.00                                  0.0000  0.0500     0
   5 Gen5                2 1.030  -5.00     0.00     0.00    24.11    2.93                                  0.0000  0.0000     0
-999
BRANCH DATA FOLLOWS                         6 ITEMS
   1    2        1    0.01920    0.05750   0.05280                           1.000 0.0
   1    3        1    0.04520    0.16520   0.04080                           1.000 0.0
   2    3        1    0.05700    0.17370   0.03680                           1.000 0.0
   2    4        1    0.00000    0.25600   0.00000                           0.950 0.0
   3    4        1    0.01320    0.03790   0.00840                           1.000 0.0
   4    5        1    0.04720    0.19830   0.04180                           1.000 0.0
-999
